<nodes>
	<node id="n1" x="+70.7" y="0.0" />
	<node id="n2" x="+65.3" y="+27.1" />
	<node id="n3" x="+50.0" y="+50.0" />
	<node id="n4" x="+27.1" y="+65.6" />
	<node id="n5" x="0.0" y="+70.7" />
	<node id="n6" x="-27.1" y="+65.6" />
	<node id="n7" x="-50.0" y="+50.0" />
	<node id="n8" x="-65.3" y="+27.1" />
	<node id="n9" x="-70.7" y="0.0" />
	<node id="n10" x="-65.3" y="-27.1" />
	<node id="n11" x="-50.0" y="-50.0" />
	<node id="n12" x="-27.1" y="-65.3" />
	<node id="n13" x="0.0" y="-70.7" />
	<node id="n14" x="+27.1" y="-65.3" />
	<node id="n15" x="+50.0" y="-50.0" />
	<node id="n16" x="+65.3" y="-27.1" />
</nodes>









