<routes>
	<vType id="car" type="passenger" length="5" accel="4" decel="3" sigma="1.0"/>
       	<flow id="carflow" type="car" beg="0" end="0" number="5" from="gneE9" to="gneE8" />
</routes>	
