<?xml version='1.0' encoding='UTF-8'?>
<configuration xmlns:xsi="http://www.w3.org/2001/XMLSchema-instance" xsi:noNamespaceSchemaLocation="http://sumo.dlr.de/xsd/sumoConfiguration.xsd">
  <input>
    <net-file value="sugiyama_20191204-1142081575452528.806477.net.xml"/>
    <route-files value="sugiyama_20191204-1142081575452528.806477.rou.xml"/>
    <additional-files value="sugiyama_20191204-1142081575452528.806477.add.xml"/>
    <gui-settings-file value="sugiyama_20191204-1142081575452528.806477.gui.cfg"/>
  </input>
  <time>
    <begin value="0"/>
  </time>
</configuration>
