<?xml version='1.0' encoding='UTF-8'?>
<configuration xmlns:xsi="http://www.w3.org/2001/XMLSchema-instance" xsi:noNamespaceSchemaLocation="http://sumo.dlr.de/xsd/sumoConfiguration.xsd">
  <input>
    <net-file value="merge-baseline_20191204-1224431575455083.45716.net.xml"/>
    <route-files value="merge-baseline_20191204-1224431575455083.45716.rou.xml"/>
    <additional-files value="merge-baseline_20191204-1224431575455083.45716.add.xml"/>
    <gui-settings-file value="merge-baseline_20191204-1224431575455083.45716.gui.cfg"/>
  </input>
  <time>
    <begin value="0"/>
  </time>
</configuration>
